test/data/three_phase/regulator_ul_xfmr_ul/result.csv
# result.csv run at 2000-01-01 00:00:00 EST on 15 powerflow objects (not all are nodes)
node_name,voltA_real,voltA_imag,voltB_real,voltB_imag,voltC_real,voltC_imag
n650,2401.777100,0.000000,-1200.888600,-2080.000000,-1200.888600,2080.000000
n630,2401.776625,-0.003319,-1200.889882,-2079.997143,-1200.885503,2079.998034
n632,2404.262973,-2.722751,-1203.735252,-2079.947745,-1197.497290,2080.849505
n631,62460.759449,-70.738389,-31272.049169,-54035.311755,-31109.973157,54058.745409
l6321,62460.800396,-70.804793,-31272.098190,-54035.281543,-31109.848480,54058.711730
